*Heading
** Job name: Job-1 Model name: Model-1
*Preprint, echo=NO, model=NO, history=NO, contact=NO
**
*Node
     1,	0,	0,	5
2,	5,	0,	5
3,	5,	0,	20
4,	0,	0,	20
5,	5,	5,	5
6,	5,	5,	20
7,	0,	5,	20
8,	0,	5,	5
9,	0,	0,	0
10,	5,	0,	0
11,	0,	5,	0
12,	5,	5,	0
13,	0.5,	0,	5
14,	1,	0,	5
15,	1.5,	0,	5
16,	2,	0,	5
17,	2.5,	0,	5
18,	3,	0,	5
19,	3.5,	0,	5
20,	4,	0,	5
** ... 4941 like lines cut
*Element, type=C3D8R
   1,  182, 1317, 1884,  795,    1,   13,  273,   88
   2, 1317, 1318, 1885, 1884,   13,   14,  274,  273
   3, 1318, 1319, 1886, 1885,   14,   15,  275,  274
   4, 1319, 1320, 1887, 1886,   15,   16,  276,  275
   5, 1320, 1321, 1888, 1887,   16,   17,  277,  276
   6, 1321, 1322, 1889, 1888,   17,   18,  278,  277
   7, 1322, 1323, 1890, 1889,   18,   19,  279,  278
   8, 1323, 1324, 1891, 1890,   19,   20,  280,  279
   9, 1324, 1325, 1892, 1891,   20,   21,  281,  280
  10, 1325,  192, 1056, 1892,   21,    2,   22,  281
  11,  795, 1884, 1893,  796,   88,  273,  282,   87
  12, 1884, 1885, 1894, 1893,  273,  274,  283,  282
  13, 1885, 1886, 1895, 1894,  274,  275,  284,  283
  14, 1886, 1887, 1896, 1895,  275,  276,  285,  284
  15, 1887, 1888, 1897, 1896,  276,  277,  286,  285
  16, 1888, 1889, 1898, 1897,  277,  278,  287,  286
  17, 1889, 1890, 1899, 1898,  278,  279,  288,  287
  18, 1890, 1891, 1900, 1899,  279,  280,  289,  288
  19, 1891, 1892, 1901, 1900,  280,  281,  290,  289
  20, 1892, 1056, 1057, 1901,  281,   22,   23,  290
** ... 3980 like lines cut
*Nset, nset=_PickedSet6, generate
    1,  4961,     1
*Elset, elset=_PickedSet6, generate
    1,  4000,     1
** Region: (Section-1:Picked)
** Section: Section-1
*Solid Section, elset=_PickedSet6, material=Material-1
1., 
**  
*Nset, nset=_PickedSet4
    3,    4,    6,    7,   51,   52,   53,   54,   55,   56,   57,   58,   59,  127,  128,  129
  130,  131,  132,  133,  134,  135,  165,  166,  167,  168,  169,  170,  171,  172,  173,  183
  184,  185,  186,  187,  188,  189,  190,  191, 1398, 1399, 1400, 1401, 1402, 1403, 1404, 1405
 1406, 1407, 1408, 1409, 1410, 1411, 1412, 1413, 1414, 1415, 1416, 1417, 1418, 1419, 1420, 1421
 1422, 1423, 1424, 1425, 1426, 1427, 1428, 1429, 1430, 1431, 1432, 1433, 1434, 1435, 1436, 1437
 1438, 1439, 1440, 1441, 1442, 1443, 1444, 1445, 1446, 1447, 1448, 1449, 1450, 1451, 1452, 1453
 1454, 1455, 1456, 1457, 1458, 1459, 1460, 1461, 1462, 1463, 1464, 1465, 1466, 1467, 1468, 1469
 1470, 1471, 1472, 1473, 1474, 1475, 1476, 1477, 1478
*Elset, elset=_PickedSet4
  291,  292,  293,  294,  295,  296,  297,  298,  299,  300,  591,  592,  593,  594,  595,  596
  597,  598,  599,  600,  891,  892,  893,  894,  895,  896,  897,  898,  899,  900, 1191, 1192
 1193, 1194, 1195, 1196, 1197, 1198, 1199, 1200, 1491, 1492, 1493, 1494, 1495, 1496, 1497, 1498
 1499, 1500, 1791, 1792, 1793, 1794, 1795, 1796, 1797, 1798, 1799, 1800, 2091, 2092, 2093, 2094
 2095, 2096, 2097, 2098, 2099, 2100, 2391, 2392, 2393, 2394, 2395, 2396, 2397, 2398, 2399, 2400
 2691, 2692, 2693, 2694, 2695, 2696, 2697, 2698, 2699, 2700, 2991, 2992, 2993, 2994, 2995, 2996
 2997, 2998, 2999, 3000
*Elset, elset=__PickedSurf5_S1,  generate
 3901,  4000,     1
*Surface, type=ELEMENT, name=_PickedSurf5
__PickedSurf5_S1, S1
*Elset, elset=__PickedSurf8_S5
 3091, 3092, 3093, 3094, 3095, 3096, 3097, 3098, 3099, 3100, 3191, 3192, 3193, 3194, 3195, 3196
 3197, 3198, 3199, 3200, 3291, 3292, 3293, 3294, 3295, 3296, 3297, 3298, 3299, 3300, 3391, 3392
 3393, 3394, 3395, 3396, 3397, 3398, 3399, 3400, 3491, 3492, 3493, 3494, 3495, 3496, 3497, 3498
 3499, 3500, 3591, 3592, 3593, 3594, 3595, 3596, 3597, 3598, 3599, 3600, 3691, 3692, 3693, 3694
 3695, 3696, 3697, 3698, 3699, 3700, 3791, 3792, 3793, 3794, 3795, 3796, 3797, 3798, 3799, 3800
 3891, 3892, 3893, 3894, 3895, 3896, 3897, 3898, 3899, 3900, 3991, 3992, 3993, 3994, 3995, 3996
 3997, 3998, 3999, 4000
*Surface, type=ELEMENT, name=_PickedSurf8
__PickedSurf8_S5, S5
** 
** MATERIALS
** 
*Material, name=Material-1
*Elastic
200., 0.3
**plastic
**100,0
**300,20
** ----------------------------------------------------------------
**
** STEP: Step-1
** 
*Step, name=Step-1
*static
1,1,1e-12,1
** 
** BOUNDARY CONDITIONS
** 
** Name: BC-1 Type: Displacement/Rotation
*Boundary
_PickedSet4, 1, 1
_PickedSet4, 2, 2
_PickedSet4, 3, 3
** 
** LOADS
**
*Dsload
_PickedSurf5, P, 1000
** Name: Load-1   Type: Pressure
** 
** OUTPUT REQUESTS
** 
*NODE PRINT, FREQ=9999999999
U
*EL PRINT, POSITION=AVERAGED AT NODES, FREQ=9999999999999
S
*Restart, write, frequency=0
** 
** FIELD OUTPUT: F-Output-1
** 
*Output, field, variable=PRESELECT
** 
** HISTORY OUTPUT: H-Output-1
** 
*Output, history, variable=PRESELECT
*End Step