*Heading
** Job name: piston-hex Model name: Model-1
*Preprint, echo=NO, model=NO, history=NO, contact=NO
**
** PARTS
**
*Part, name=Part-1
*Node
      1,           0.,          36.,          60.
      2,          60.,          36.,           0.
      3,          60.,          39.,           0.
      4,           0.,          39.,          60.
      5,           0.,          36.,          65.
      6,          65.,          36.,           0.
      7,          65.,          39.,           0.
      8,           0.,          39.,          65.
      9,   55.7668304,   20.9881191,           0.
     10,          60.,   12.8184404,           0.
     11,           0.,   12.8184404,          60.
     12,           0.,   20.9881191,   55.7668304
     13,          65.,   12.8184404,           0.
     14,           0.,   12.8184404,          65.
     15,           0.,   20.9881191,          65.
     16,          65.,   20.9881191,           0.
     17,           0.,   20.9881191,          60.
     18,          60.,   20.9881191,           0.
     19,          65.,          33.,           0.
     20,           0.,          33.,          65.
** ... 12154 like lines cut
*Element, type=C3D8R
 1,    1,   59,  138,    4,  220, 1178, 1218,  219
 2,   59,   60,  137,  138, 1178, 1179, 1219, 1218
 3,   60,   61,  136,  137, 1179, 1180, 1220, 1219
 4,   61,   62,  135,  136, 1180, 1181, 1221, 1220
 5,   62,   63,  134,  135, 1181, 1182, 1222, 1221
 6,   63,   64,  133,  134, 1182, 1183, 1223, 1222
 7,   64,   65,  132,  133, 1183, 1184, 1224, 1223
 8,   65,   66,  131,  132, 1184, 1185, 1225, 1224
 9,   66,   67,  130,  131, 1185, 1186, 1226, 1225
10,   67,   68,  129,  130, 1186, 1187, 1227, 1226
11,   68,   69,  128,  129, 1187, 1188, 1228, 1227
12,   69,   70,  127,  128, 1188, 1189, 1229, 1228
13,   70,   71,  126,  127, 1189, 1190, 1230, 1229
14,   71,   72,  125,  126, 1190, 1191, 1231, 1230
15,   72,   73,  124,  125, 1191, 1192, 1232, 1231
16,   73,   74,  123,  124, 1192, 1193, 1233, 1232
17,   74,   75,  122,  123, 1193, 1194, 1234, 1233
18,   75,   76,  121,  122, 1194, 1195, 1235, 1234
19,   76,   77,  120,  121, 1195, 1196, 1236, 1235
20,   77,   78,  119,  120, 1196, 1197, 1237, 1236
** ... 9367 like lines cut
*Nset, nset=_PickedSet2, internal, generate
     1,  12174,      1
*Elset, elset=_PickedSet2, internal, generate
    1,  9387,     1
*Elset, elset=_Surf-1_S4, internal, generate
 616,  697,    1
*Elset, elset=_Surf-1_S1, internal
  247,  248,  249,  250,  251,  252,  253,  254,  255,  256,  257,  258,  259,  260,  261,  262
  263,  264,  265,  266,  267,  268,  269,  270,  271,  272,  273,  274,  275,  276,  277,  278
  279,  280,  281,  282,  283,  284,  285,  286,  287,  288,  289,  290,  291,  292,  293,  294
  295,  296,  297,  298,  299,  300,  301,  302,  303,  304,  305,  306,  307,  308,  309,  310
  311,  312,  313,  314,  315,  316,  317,  318,  319,  320,  321,  322,  323,  324,  325,  326
  327,  328,  329,  330,  331,  332,  333,  334,  335,  336,  337,  338,  339,  340,  341,  342
  343,  344,  345,  346,  347,  348,  349,  350,  351,  352,  353,  354,  355,  356,  357,  358
  359,  360,  361,  362,  363,  364,  365,  366,  367,  368,  369,  370,  371,  372,  373,  374
  375,  376,  377,  378,  379,  380,  381,  382,  383,  384,  385,  386,  387,  388,  389,  390
  391,  392,  393,  394,  395,  396,  397,  398,  399,  400,  401,  402,  403,  404,  405,  406
  407,  408,  409,  410, 1694, 1695, 1696, 1697, 1698, 1699, 1700, 1701, 1702, 1703, 1704, 1705
 1706, 1707, 1708, 1709, 1710, 1711, 1712, 1713, 1714, 1715, 1716, 1717, 1718, 1719, 1720, 1721
 1722, 1723, 1724, 1725, 1726, 1727, 1728, 1729, 1730, 1731, 1732, 1733, 1734, 1735, 1736, 1737
 1738, 1739, 1740, 1741, 1742, 1743, 1744, 1745, 1746, 1747, 1748, 1749, 1750, 1751, 1752, 1753
 1754, 1755, 1756, 1757, 1758, 1759, 1760, 1761, 1762, 1763, 1764, 1765, 1766, 1767, 1768, 1769
 1770, 1771, 1772, 1773, 1774, 1775, 1776, 1777, 1778, 1779, 1780, 1781, 1782, 1783, 1784, 1785
 1786, 1787, 1788, 1789, 1790, 1791, 1792, 1793, 1794, 1795, 1796, 1797, 1798, 1799, 1800, 1801
 1802, 1803, 1804, 1805, 1806, 1807, 1808, 1809, 1810, 1811, 1812, 1813, 1814, 1815, 1816, 1817
 1818, 1819, 1820, 1821, 1822, 1823, 1824, 1825, 1826, 1827, 1828, 1829, 1830, 1831, 1832, 1833
 1834, 1835, 1836, 1837, 1838, 1839, 1840, 1841, 1842, 1843, 1844, 1845, 1846, 1847, 1848, 1849
** ... 61 like lines cut
*Elset, elset=_Surf-1_S3, internal
    1,    2,    3,    4,    5,    6,    7,    8,    9,   10,   11,   12,   13,   14,   15,   16
   17,   18,   19,   20,   21,   22,   23,   24,   25,   26,   27,   28,   29,   30,   31,   32
   33,   34,   35,   36,   37,   38,   39,   40,   41,   42,   43,   44,   45,   46,   47,   48
   49,   50,   51,   52,   53,   54,   55,   56,   57,   58,   59,   60,   61,   62,   63,   64
   65,   66,   67,   68,   69,   70,   71,   72,   73,   74,   75,   76,   77,   78,   79,   80
   81,   82,  698,  699,  700,  701,  702,  703,  704,  705,  706,  707,  708,  709,  710,  711
  712,  713,  746,  747,  748,  749,  750,  751,  752,  753,  754,  755,  756,  757,  758,  759
  760,  761,  794,  795,  796,  797,  798,  799,  800,  801,  802,  803,  804,  805,  806,  807
  808,  809,  842,  843,  844,  845,  846,  847,  848,  849,  850,  851,  852,  853,  854,  855
  856,  857,  890,  891,  892,  893,  894,  895,  896,  897,  898,  899,  900,  901,  902,  903
  904,  905,  938,  939,  940,  941,  942,  943,  944,  945,  946,  947,  948,  949,  950,  951
  952,  953,  986,  987,  988,  989,  990,  991,  992,  993,  994,  995,  996,  997,  998,  999
 1000, 1001, 1034, 1035, 1036, 1037, 1038, 1039, 1040, 1041, 1042, 1043, 1044, 1045, 1046, 1047
 1048, 1049, 1082, 1083, 1084, 1085, 1086, 1087, 1088, 1089, 1090, 1091, 1092, 1093, 1094, 1095
 1096, 1097, 1130, 1131, 1132, 1133, 1134, 1135, 1136, 1137, 1138, 1139, 1140, 1141, 1142, 1143
 1144, 1145, 1178, 1179, 1180, 1181, 1182, 1183, 1184, 1185, 1186, 1187, 1188, 1189, 1190, 1191
 1192, 1193, 1226, 1227, 1228, 1229, 1230, 1231, 1232, 1233, 1234, 1235, 1236, 1237, 1238, 1239
 1240, 1241, 1274, 1275, 1276, 1277, 1278, 1279, 1280, 1281, 1282, 1283, 1284, 1285, 1286, 1287
 1288, 1289, 1322, 1323, 1324, 1325, 1326, 1327, 1328, 1329, 1330, 1331, 1332, 1333, 1334, 1335
 1336, 1337, 1370, 1371, 1372, 1373, 1374, 1375, 1376, 1377, 1378, 1379, 1380, 1381, 1382, 1383
 1384, 1385
*Elset, elset=_Surf-1_S2, internal
   42,   43,   44,   45,   46,   47,   48,   49,   50,   51,   52,   53,   54,   55,   56,   57
   58,   59,   60,   61,   62,   63,   64,   65,   66,   67,   68,   69,   70,   71,   72,   73
   74,   75,   76,   77,   78,   79,   80,   81,   82,   83,   84,   85,   86,   87,   88,   89
   90,   91,   92,   93,   94,   95,   96,   97,   98,   99,  100,  101,  102,  103,  104,  105
  106,  107,  108,  109,  110,  111,  112,  113,  114,  115,  116,  117,  118,  119,  120,  121
  122,  123,  124,  125,  126,  127,  128,  129,  130,  131,  132,  133,  134,  135,  136,  137
  138,  139,  140,  141,  142,  143,  144,  145,  146,  147,  148,  149,  150,  151,  152,  153
  154,  155,  156,  157,  158,  159,  160,  161,  162,  163,  164,  165,  166,  167,  168,  169
  170,  171,  172,  173,  174,  175,  176,  177,  178,  179,  180,  181,  182,  183,  184,  185
  186,  187,  188,  189,  190,  191,  192,  193,  194,  195,  196,  197,  198,  199,  200,  201
  202,  203,  204,  205,  206,  207,  208,  209,  210,  211,  212,  213,  214,  215,  216,  217
  218,  219,  220,  221,  222,  223,  224,  225,  226,  227,  228,  229,  230,  231,  232,  233
  234,  235,  236,  237,  238,  239,  240,  241,  242,  243,  244,  245,  246,  411,  412,  413
  414,  415,  416,  417,  418,  419,  420,  421,  422,  423,  424,  425,  426,  427,  428,  429
  430,  431,  432,  433,  434,  435,  436,  437,  438,  439,  440,  441,  442,  443,  444,  445
  446,  447,  448,  449,  450,  451,  452,  453,  454,  455,  456,  457,  458,  459,  460,  461
  462,  463,  464,  465,  466,  467,  468,  469,  470,  471,  472,  473,  474,  475,  476,  477
  478,  479,  480,  481,  482,  483,  484,  485,  486,  487,  488,  489,  490,  491,  492,  493
  494,  495,  496,  497,  498,  499,  500,  501,  502,  503,  504,  505,  506,  507,  508,  509
  510,  511,  512,  513,  514,  515,  516,  517,  518,  519,  520,  521,  522,  523,  524,  525
** ... 105 like lines cut
*Elset, elset=_Surf-1_S6, internal
  616,  617,  618,  619,  620,  621,  622,  623,  624,  625,  626,  627,  628,  629,  630,  631
  632,  633,  634,  635,  636,  637,  638,  639,  640,  641,  642,  643,  644,  645,  646,  647
  648,  649,  650,  651,  652,  653,  654,  655,  656,  657,  658,  659,  660,  661,  662,  663
  664,  665,  666,  667,  668,  669,  670,  671,  672,  673,  674,  675,  676,  677,  678,  679
  680,  681,  682,  683,  684,  685,  686,  687,  688,  689,  690,  691,  692,  693,  694,  695
  696,  697, 8465, 8466, 8467, 8468, 8469, 8470, 8471, 8472, 8473, 8474, 8475, 8476, 8477, 8478
 8479, 8480, 9340, 9341, 9342, 9343, 9344, 9345, 9346, 9347, 9348, 9349, 9350, 9351, 9352, 9353
 9354, 9355
*Elset, elset=_Surf-1_S5, internal
    1,    2,    3,    4,    5,    6,    7,    8,    9,   10,   11,   12,   13,   14,   15,   16
   17,   18,   19,   20,   21,   22,   23,   24,   25,   26,   27,   28,   29,   30,   31,   32
   33,   34,   35,   36,   37,   38,   39,   40,   41,   42,   43,   44,   45,   46,   47,   48
   49,   50,   51,   52,   53,   54,   55,   56,   57,   58,   59,   60,   61,   62,   63,   64
   65,   66,   67,   68,   69,   70,   71,   72,   73,   74,   75,   76,   77,   78,   79,   80
   81,   82,  575,  576,  577,  578,  579,  580,  581,  582,  583,  584,  585,  586,  587,  588
  589,  590,  591,  592,  593,  594,  595,  596,  597,  598,  599,  600,  601,  602,  603,  604
  605,  606,  607,  608,  609,  610,  611,  612,  613,  614,  615,  730,  731,  732,  733,  734
  735,  736,  737,  738,  739,  740,  741,  742,  743,  744,  745,  778,  779,  780,  781,  782
  783,  784,  785,  786,  787,  788,  789,  790,  791,  792,  793,  826,  827,  828,  829,  830
  831,  832,  833,  834,  835,  836,  837,  838,  839,  840,  841,  874,  875,  876,  877,  878
  879,  880,  881,  882,  883,  884,  885,  886,  887,  888,  889,  922,  923,  924,  925,  926
  927,  928,  929,  930,  931,  932,  933,  934,  935,  936,  937,  970,  971,  972,  973,  974
  975,  976,  977,  978,  979,  980,  981,  982,  983,  984,  985, 1018, 1019, 1020, 1021, 1022
 1023, 1024, 1025, 1026, 1027, 1028, 1029, 1030, 1031, 1032, 1033, 1066, 1067, 1068, 1069, 1070
 1071, 1072, 1073, 1074, 1075, 1076, 1077, 1078, 1079, 1080, 1081, 1114, 1115, 1116, 1117, 1118
 1119, 1120, 1121, 1122, 1123, 1124, 1125, 1126, 1127, 1128, 1129, 1162, 1163, 1164, 1165, 1166
 1167, 1168, 1169, 1170, 1171, 1172, 1173, 1174, 1175, 1176, 1177, 1210, 1211, 1212, 1213, 1214
 1215, 1216, 1217, 1218, 1219, 1220, 1221, 1222, 1223, 1224, 1225, 1258, 1259, 1260, 1261, 1262
 1263, 1264, 1265, 1266, 1267, 1268, 1269, 1270, 1271, 1272, 1273, 1306, 1307, 1308, 1309, 1310
** ... 11 like lines cut
*Surface, type=ELEMENT, name=Surf-1
_Surf-1_S4, S4
_Surf-1_S1, S1
_Surf-1_S2, S2
_Surf-1_S6, S6
_Surf-1_S3, S3
_Surf-1_S5, S5
** Section: Section-1
*Solid Section, elset=_PickedSet2, material=Material-1
1.,
*End Part
**  
**
** ASSEMBLY
**
*Assembly, name=Assembly
**  
*Instance, name=Part-1-1, part=Part-1
*End Instance
**  
*Nset, nset=_PickedSet11, internal, instance=Part-1-1
    2,    3,    6,    7,    9,   10,   13,   16,   18,   19,   21,   23,   24,   27,   28,   31
   33,   35,   36,   37,   38,   41,   42,   43,   44,   46,   48,   49,   50,   53,   54,   55
   56,   57,  221,  222,  223,  224,  225,  309,  310,  311,  436,  437,  438,  439,  440,  485
  486,  487,  488,  694,  696,  711,  712,  727,  728,  744,  745,  759,  760,  761,  762,  763
  764,  765,  766,  767,  768,  769,  770,  771,  772,  773,  774,  775,  776,  777,  778,  779
  780,  781,  782,  783,  784,  785,  786,  787,  788,  789,  790,  791,  792,  793,  794,  795
  796,  797,  798,  799,  800,  801,  802,  803,  804,  805,  806,  807,  808,  809,  810,  811
  812,  813,  814,  815,  816,  817,  818,  819,  820,  821,  822,  823,  824,  825,  826,  827
  828,  829,  830,  831,  832,  874,  875,  907,  908,  909,  939,  940,  941,  942,  943,  944
  945,  946,  947,  948,  949,  950,  951,  952,  953,  954,  955,  956,  957,  958,  959,  960
  961,  962,  963,  964,  965,  966,  967,  968,  994,  995,  997,  998,  999, 1000, 1001, 1002
 1003, 1004, 1005, 1006, 1007, 1008, 1009, 1010, 1011, 1012, 1013, 1014, 1015, 1016, 1017, 1018
 1019, 1020, 1021, 1022, 1023, 1085, 1086, 1087, 1088, 1089, 1104, 1105, 1106, 1107, 1108, 1109
 1110, 1111, 1112, 1113, 1114, 1115, 1538, 1539, 1540, 2004, 2005, 2006, 2007, 2008, 2009, 2010
 2011, 2012, 2013, 2014, 2015, 2016, 2017, 2018, 2019, 2020, 2021, 2022, 2023, 2024, 2025, 2026
 2027, 2028, 2029, 2030, 2031, 2032, 2033, 2034, 2035, 2036, 2037, 2038, 2039, 2040, 2041, 2042
 2043, 2044, 2045, 2046, 2047, 2048, 2049, 2050, 2051, 2052, 2053, 2054, 2055, 2056, 2057, 2058
 2059, 3113, 3114, 3115, 3116, 3117, 3118, 3119, 3120, 3121, 3122, 3123, 3124, 3125, 3126, 3127
 3128, 3129, 3130, 3131, 3132, 3133, 3134, 3135, 3136, 3137, 3138, 3139, 3140, 3141, 3142, 3143
 3144, 3145, 3146, 3147, 3148, 3149, 3150, 3151, 3152, 3153, 3154, 3155, 3156, 3157, 3158, 3159
** ... 10 like lines cut
*Elset, elset=_PickedSet11, internal, instance=Part-1-1
   41,   82,   83,   84,   85,   86,  247,  248,  249,  250,  451,  492,  533,  574,  615,  616
  657,  698,  713,  714,  729,  730,  745,  746,  761,  762,  777,  778,  793,  794,  809,  810
  825,  826,  841,  842,  857,  858,  873,  874,  889,  890,  905,  906,  921,  922,  937,  938
  953,  954,  969,  970,  985,  986, 1001, 1002, 1017, 1018, 1033, 1034, 1049, 1050, 1065, 1066
 1081, 1082, 1097, 1098, 1113, 1114, 1129, 1130, 1145, 1146, 1161, 1162, 1177, 1178, 1193, 1194
 1209, 1210, 1225, 1226, 1241, 1242, 1257, 1258, 1273, 1274, 1289, 1290, 1305, 1306, 1321, 1322
 1337, 1338, 1353, 1354, 1369, 1370, 1385, 1386, 1401, 1402, 1417, 1419, 1424, 1425, 1426, 1429
 1432, 1433, 1435, 1436, 1454, 1472, 1473, 1474, 1482, 1485, 1490, 1517, 1720, 1721, 1771, 1779
 1780, 1801, 1926, 1999, 2041, 2046, 2047, 2048, 2051, 2054, 2055, 2057, 2058, 2076, 2094, 2095
 2096, 2104, 2107, 2112, 2139, 2342, 2343, 2393, 2401, 2402, 2423, 2548, 2621, 2663, 2668, 2669
 2670, 2673, 2676, 2677, 2679, 2680, 2698, 2716, 2717, 2718, 2726, 2729, 2734, 2761, 2964, 2965
 3015, 3023, 3024, 3045, 3170, 3243, 3285, 3290, 3291, 3292, 3295, 3298, 3299, 3301, 3302, 3320
 3338, 3339, 3340, 3348, 3351, 3356, 3383, 3586, 3587, 3637, 3645, 3646, 3667, 3792, 3865, 3907
 3912, 3913, 3914, 3917, 3920, 3921, 3923, 3924, 3942, 3960, 3961, 3962, 3970, 3973, 3978, 4005
 4208, 4209, 4259, 4267, 4268, 4289, 4414, 4487, 4529, 4534, 4535, 4536, 4539, 4542, 4543, 4545
 4546, 4564, 4582, 4583, 4584, 4592, 4595, 4600, 4627, 4830, 4831, 4881, 4889, 4890, 4911, 5036
 5109, 5151, 5156, 5157, 5158, 5161, 5164, 5165, 5167, 5168, 5186, 5204, 5205, 5206, 5214, 5217
 5222, 5249, 5452, 5453, 5503, 5511, 5512, 5533, 5658, 5731, 5773, 5778, 5779, 5780, 5783, 5786
 5787, 5789, 5790, 5808, 5826, 5827, 5828, 5836, 5839, 5844, 5871, 6074, 6075, 6125, 6133, 6134
 6155, 6280, 6353, 6395, 6400, 6401, 6402, 6405, 6408, 6409, 6411, 6412, 6430, 6448, 6449, 6450
** ... 5 like lines cut
*Nset, nset=_PickedSet12, internal, instance=Part-1-1
    1,    4,    5,    8,   11,   12,   14,   15,   17,   20,   22,   25,   26,   29,   30,   43
   45,   47,   48,   49,   51,   58,  219,  220,  266,  267,  268,  352,  353,  354,  435,  481
  482,  483,  484,  529,  530,  531,  532,  693,  695,  858,  859,  860,  861,  862,  863,  864
  865,  866,  867,  868,  869,  870,  871,  872,  873,  905,  906,  910,  911,  912,  913,  914
  915,  916,  917,  918,  919,  920,  921,  922,  923,  924,  925,  926,  927,  928,  929,  930
  931,  932,  933,  934,  935,  936,  937,  938,  939,  940,  941,  942,  943,  944,  969,  970
  971,  972,  973,  974,  975,  976,  977,  978,  979,  980,  981,  982,  983,  984,  985,  986
  987,  988,  989,  990,  991,  992,  993,  994,  995,  996, 1064, 1065, 1066, 1067, 1068, 1069
 1070, 1071, 1072, 1073, 1074, 1075, 1076, 1077, 1078, 1079, 1080, 1081, 1082, 1083, 1084, 1156
 1157, 1158, 1159, 1160, 1161, 1162, 1163, 1164, 1165, 1166, 1167, 1168, 1169, 1170, 1171, 1172
 1173, 1174, 1175, 1176, 1177, 1541, 1542, 1543, 2963, 2964, 2965, 2966, 2967, 2968, 2969, 2970
 2971, 2972, 2973, 2974, 2975, 2976, 2977, 2978, 2979, 2980, 2981, 2982, 2983, 2984, 2985, 2986
 2987, 2988, 2989, 2990, 2991, 2992, 2993, 2994, 2995, 2996, 2997, 2998, 2999, 3000, 3001, 3002
 3003, 3004, 3005, 3006, 3007, 3008, 3009, 3010, 3011, 3012, 3013, 3014, 3015, 3016, 3017, 3018
 3019, 3020, 3021, 3022, 3023, 3024, 3025, 3026, 3027, 3028, 3029, 3030, 3031, 3032, 3033, 3034
 3035, 3036, 3037, 3038, 3039, 3040, 3041, 3042, 3043, 3044, 3045, 3046, 3047, 3048, 3049, 3050
 3051, 3052, 3053, 3054, 3055, 3056, 3057, 3058, 3059, 3060, 3061, 3062, 3063, 3064, 3065, 3066
 3067, 3068, 3069, 3070, 3071, 3072, 3073, 3074, 3075, 3076, 3077, 3078, 3079, 3080, 3081, 3082
 3083, 3084, 3085, 3086, 3087, 3088, 3089, 3090, 3091, 3092, 3093, 3094, 3095, 3096, 3097, 3098
 3099, 3100, 3101, 3102, 3103, 3104, 3105, 3106, 3107, 3108, 3109, 3110, 3111, 3112, 3834, 3835
** ... 5 like lines cut
*Elset, elset=_PickedSet12, internal, instance=Part-1-1
    1,   42,  243,  244,  245,  246,  407,  408,  409,  410,  411,  452,  493,  534,  575,  656
  697, 1418, 1422, 1437, 1454, 1455, 1457, 1461, 1462, 1464, 1470, 1471, 1476, 1492, 1493, 1503
 1508, 1516, 1719, 1745, 1746, 1849, 1850, 1852, 1864, 1866, 2039, 2040, 2044, 2059, 2076, 2077
 2079, 2083, 2084, 2086, 2092, 2093, 2098, 2114, 2115, 2125, 2130, 2138, 2341, 2367, 2368, 2471
 2472, 2474, 2486, 2488, 2661, 2662, 2666, 2681, 2698, 2699, 2701, 2705, 2706, 2708, 2714, 2715
 2720, 2736, 2737, 2747, 2752, 2760, 2963, 2989, 2990, 3093, 3094, 3096, 3108, 3110, 3283, 3284
 3288, 3303, 3320, 3321, 3323, 3327, 3328, 3330, 3336, 3337, 3342, 3358, 3359, 3369, 3374, 3382
 3585, 3611, 3612, 3715, 3716, 3718, 3730, 3732, 3905, 3906, 3910, 3925, 3942, 3943, 3945, 3949
 3950, 3952, 3958, 3959, 3964, 3980, 3981, 3991, 3996, 4004, 4207, 4233, 4234, 4337, 4338, 4340
 4352, 4354, 4527, 4528, 4532, 4547, 4564, 4565, 4567, 4571, 4572, 4574, 4580, 4581, 4586, 4602
 4603, 4613, 4618, 4626, 4829, 4855, 4856, 4959, 4960, 4962, 4974, 4976, 5149, 5150, 5154, 5169
 5186, 5187, 5189, 5193, 5194, 5196, 5202, 5203, 5208, 5224, 5225, 5235, 5240, 5248, 5451, 5477
 5478, 5581, 5582, 5584, 5596, 5598, 5771, 5772, 5776, 5791, 5808, 5809, 5811, 5815, 5816, 5818
 5824, 5825, 5830, 5846, 5847, 5857, 5862, 5870, 6073, 6099, 6100, 6203, 6204, 6206, 6218, 6220
 6393, 6394, 6398, 6413, 6430, 6431, 6433, 6437, 6438, 6440, 6446, 6447, 6452, 6468, 6469, 6479
 6484, 6492, 6695, 6721, 6722, 6825, 6826, 6828, 6840, 6842, 7015, 7016, 7020, 7035, 7052, 7053
 7055, 7059, 7060, 7062, 7068, 7069, 7074, 7090, 7091, 7101, 7106, 7114, 7317, 7343, 7344, 7447
 7448, 7450, 7462, 7464, 7637, 7643, 7745, 7753, 7754, 7761, 7769, 7770, 7774, 7775, 7776, 8006
 8081, 8122, 8123, 8125, 8126, 8127, 8128, 8129, 8130, 8154, 8174, 8518, 8620, 8628, 8629, 8636
 8644, 8645, 8649, 8650, 8651, 8881, 8956, 8997, 8998, 9000, 9001, 9002, 9003, 9004, 9005, 9029
 9049,
*Nset, nset=_PickedSet13, internal, instance=Part-1-1
   50,   51,   56,   58, 1024, 1025, 1026, 1027, 1028, 1029, 1030, 1031, 1032, 1033, 1034, 1035
 1036, 1037, 1038, 1039, 1040, 1041, 1042, 1043, 1044, 1045, 1046, 1047, 1048, 1049, 1050, 1051
 1052, 1053, 1054, 1055, 1056, 1057, 1058, 1059, 1060, 1061, 1062, 1063, 1109, 1116, 1117, 1118
 1119, 1120, 1121, 1122, 1123, 1124, 1125, 1126, 1127, 1128, 1129, 1130, 1131, 1132, 1133, 1134
 1135, 1136, 1137, 1138, 1139, 1140, 1141, 1142, 1143, 1144, 1145, 1146, 1147, 1148, 1149, 1150
 1151, 1152, 1153, 1154, 1155, 1156, 5340, 5341, 5342, 5343, 5344, 5345, 5346, 5347, 5348, 5349
 5350, 5351, 5352, 5353, 5354, 5355, 5356, 5357, 5358, 5359, 5360, 5361, 5362, 5363, 5364, 5365
 5366, 5367, 5368, 5369, 5370, 5371, 5372, 5373, 5374, 5375, 5376, 5377, 5378, 5379
*Elset, elset=_PickedSet13, internal, instance=Part-1-1
 7653, 7654, 7655, 7701, 7702, 7704, 7715, 7719, 7726, 7728, 7730, 7733, 7734, 7737, 7748, 7756
 7762, 7767, 7770, 7953, 7957, 8105, 8106, 8107, 8108, 8109, 8110, 8111, 8112, 8113, 8114, 8115
 8116, 8117, 8118, 8119, 8120, 8121, 8167, 8199, 8204, 8528, 8529, 8530, 8576, 8577, 8579, 8590
 8594, 8601, 8603, 8605, 8608, 8609, 8612, 8623, 8631, 8637, 8642, 8645, 8828, 8832, 8980, 8981
 8982, 8983, 8984, 8985, 8986, 8987, 8988, 8989, 8990, 8991, 8992, 8993, 8994, 8995, 8996, 9042
 9074, 9079
*Elset, elset=__PickedSurf10_S5, internal, instance=Part-1-1
  730,  731,  732,  733,  734,  735,  736,  737,  738,  739,  740,  741,  742,  743,  744,  745
  778,  779,  780,  781,  782,  783,  784,  785,  786,  787,  788,  789,  790,  791,  792,  793
  826,  827,  828,  829,  830,  831,  832,  833,  834,  835,  836,  837,  838,  839,  840,  841
  874,  875,  876,  877,  878,  879,  880,  881,  882,  883,  884,  885,  886,  887,  888,  889
  922,  923,  924,  925,  926,  927,  928,  929,  930,  931,  932,  933,  934,  935,  936,  937
  970,  971,  972,  973,  974,  975,  976,  977,  978,  979,  980,  981,  982,  983,  984,  985
 1018, 1019, 1020, 1021, 1022, 1023, 1024, 1025, 1026, 1027, 1028, 1029, 1030, 1031, 1032, 1033
 1066, 1067, 1068, 1069, 1070, 1071, 1072, 1073, 1074, 1075, 1076, 1077, 1078, 1079, 1080, 1081
 1114, 1115, 1116, 1117, 1118, 1119, 1120, 1121, 1122, 1123, 1124, 1125, 1126, 1127, 1128, 1129
 1162, 1163, 1164, 1165, 1166, 1167, 1168, 1169, 1170, 1171, 1172, 1173, 1174, 1175, 1176, 1177
 1210, 1211, 1212, 1213, 1214, 1215, 1216, 1217, 1218, 1219, 1220, 1221, 1222, 1223, 1224, 1225
 1258, 1259, 1260, 1261, 1262, 1263, 1264, 1265, 1266, 1267, 1268, 1269, 1270, 1271, 1272, 1273
 1306, 1307, 1308, 1309, 1310, 1311, 1312, 1313, 1314, 1315, 1316, 1317, 1318, 1319, 1320, 1321
 1354, 1355, 1356, 1357, 1358, 1359, 1360, 1361, 1362, 1363, 1364, 1365, 1366, 1367, 1368, 1369
 1402, 1403, 1404, 1405, 1406, 1407, 1408, 1409, 1410, 1411, 1412, 1413, 1414, 1415, 1416, 1417
*Surface, type=ELEMENT, name=_PickedSurf10, internal
__PickedSurf10_S5, S5
*Elset, elset=__PickedSurf15_S1, internal, instance=Part-1-1, generate
 1418,  1693,     1
*Surface, type=ELEMENT, name=_PickedSurf15, internal
__PickedSurf15_S1, S1
*End Assembly
** 
** MATERIALS
** 
*Material, name=Material-1
*Elastic
200000., 0.3
** ----------------------------------------------------------------
** 
** STEP: Step-1
** 
*Step, name=Step-1
*Static
1., 1., 1e-05, 1.
** 
** BOUNDARY CONDITIONS
** 
** Name: BC-1 Type: Displacement/Rotation
*Boundary
_PickedSet11, 3, 3
** Name: BC-2 Type: Displacement/Rotation
*Boundary
_PickedSet12, 1, 1
** Name: BC-3 Type: Displacement/Rotation
*Boundary
_PickedSet13, 2, 2
** 
** LOADS
** 
** Name: Load-1   Type: Pressure
*Dsload
_PickedSurf15, P, 1500.
** Name: Load-2   Type: Pressure
*Dsload
_PickedSurf10, P, 3000.
**
** OUTPUT REQUESTS
** 
*EL PRINT, POSITION=AVERAGED AT NODES, FREQ=9999999999999
S
*Restart, write, frequency=0
** 
** FIELD OUTPUT: F-Output-1
** 
*Output, field, variable=PRESELECT
** 
** HISTORY OUTPUT: H-Output-1
** 
*Output, history, variable=PRESELECT
*End Step
